Header
  CHECK KEYWORDS Warn
  Mesh DB "." "mesh"
  Include Path ""
  Results Directory ""
End

Simulation
  Max Output Level = 5
  Coordinate System = Cartesian
  Coordinate Mapping(3) = 1 2 3
  Simulation Type = Steady state
  Steady State Max Iterations = 1
  Output Intervals = 1
  Post File = "acoustic_field.vtu"
  Angular Frequency = 251327.4
End

Constants
  Gravity(4) = 0 -1 0 9.82
  Stefan Boltzmann = 5.67e-08
  Permittivity of Vacuum = 8.8542e-12
  Boltzmann Constant = 1.3807e-23
  Unit Charge = 1.602e-19
End

Body 1
  Target Bodies(1) = 1
  Name = "Air_Volume"
  Equation = 1
  Material = 1
End

Solver 1
  Equation = Helmholtz Equation
  Procedure = "HelmholtzSolve" "HelmholtzSolver"
  Variable = -dofs 2 Pressure
  Exec Solver = Always
  Stabilize = True
  Bubbles = False
  Lumped Mass Matrix = False
  Optimize Bandwidth = True
  Steady State Convergence Tolerance = 1.0e-5
  Nonlinear System Convergence Tolerance = 1.0e-7
  Nonlinear System Max Iterations = 20
  Nonlinear System Newton After Iterations = 3
  Nonlinear System Newton After Tolerance = 1.0e-3
  Nonlinear System Relaxation Factor = 1
  Linear System Solver = Iterative
  Linear System Iterative Method = BiCGStab
  Linear System Max Iterations = 1000
  Linear System Convergence Tolerance = 1.0e-8
  Linear System Preconditioning = ILU1
  Linear System ILUT Tolerance = 1.0e-3
  Linear System Abort Not Converged = False
  Linear System Residual Output = 10
  Linear System Precondition Recompute = 1
End

Equation 1
  Name = "Helmholtz"
  Active Solvers(1) = 1
End

Material 1
  Name = "Air (room temperature)"
  Sound speed = 343.0
  Density = 1.204
End

! --- BOUNDARY CONDITIONS ---

! Boundary 1: Bottom (Z=0). The Phased Array.
Boundary Condition 1
  Target Boundaries(1) = 1
  Name = "Transducer_Array"
  Pressure 1 = Variable Time
    Real Procedure "PhasedArray" "PressureReal"
  Pressure 2 = Variable Time
    Real Procedure "PhasedArray" "PressureImag"
End

! Boundary 2: Top (Z=0.10). Radiation (Absorbing) Boundary
Boundary Condition 2
  Target Boundaries(1) = 2
  Name = "Top_Absorbing"
  Wave impedance 1 = 412.97
End

! Boundaries 3, 4, 5, 6: Sides. Radiation Boundaries
Boundary Condition 3
  Target Boundaries(4) = 3 4 5 6
  Name = "Side_Absorbing"
  Wave impedance 1 = 412.97
End